9
triazine
H     0.000000     0.000000     2.386083
H     0.000000    -2.066408    -1.193041
H     0.000000     2.066408    -1.193041
C     0.000000     0.000000     1.298345
C     0.000000     1.124400    -0.649173
C     0.000000    -1.124400    -0.649173
N     0.000000     0.000000    -1.379450
N     0.000000     1.194639     0.689726
N     0.000000    -1.194639     0.689726
