9
furan
H     0.000000     2.051058     0.851533
H     0.000000    -2.051058     0.851533
H     0.000000     1.371979    -1.821224
H     0.000000    -1.371979    -1.821224
C     0.000000     1.095840     0.348301
C     0.000000    -1.095840     0.348301
C     0.000000     0.714027    -0.963274
C     0.000000    -0.714027    -0.963274
O     0.000000     0.000000     1.164881
