10
pyridazine
H     0.000000     2.409486    -0.149325
H     0.000000    -2.409486    -0.149325
H     0.000000     1.271234     2.102647
H     0.000000    -1.271234     2.102647
C     0.000000     1.325698    -0.063084
C     0.000000    -1.325698    -0.063084
C     0.000000     0.693095     1.182948
C     0.000000    -0.693095     1.182948
N     0.000000     0.674211    -1.238929
N     0.000000    -0.674211    -1.238929
