10
pyrimidine
H     0.000000     2.156588     1.120200
H     0.000000    -2.156588     1.120200
H     0.000000     0.000000    -2.400385
H     0.000000     0.000000     2.440403
C     0.000000     1.186684     0.626213
C     0.000000    -1.186684     0.626213
C     0.000000     0.000000    -1.312625
C     0.000000     0.000000     1.354949
N     0.000000     1.203523    -0.717781
N     0.000000    -1.203523    -0.717781
