8
tetrazine
H     0.000000     0.000000    -2.354794
H     0.000000     0.000000     2.354794
C     0.000000     0.000000     1.269044
C     0.000000     0.000000    -1.269044
N     0.000000     1.204572     0.670429
N     0.000000    -1.204572     0.670429
N     0.000000     1.204572    -0.670429
N     0.000000    -1.204572    -0.670429
