10
Needed for reordering for nothing else
 C            .000000     .000000     .000000
 H            .629118     .629118     .629118
 H           -.629118    -.629118     .629118
 H            .629118    -.629118    -.629118
 H           -.629118     .629118    -.629118
 C            .000000     .000000     .000000
 H            .629118     .629118     .629118
 H           -.629118    -.629118     .629118
 H            .629118    -.629118    -.629118
 H           -.629118     .629118    -.629118
 