9
acetamide
H     1.173209    -1.735763     0.000000
H     2.035841    -0.226201     0.000000
H    -2.121189    -0.156089     0.000000
H    -1.310647    -1.472742     0.885504
H    -1.310647    -1.472742    -0.885504
C     0.000000     0.000000     0.000000
C    -1.267042    -0.831610     0.000000
O     0.000000     1.229439     0.000000
N     1.158967    -0.727718     0.000000
