12
# converted from Conformer3D_CID_241.json
C    -1.2131    -0.6884    0
C    -1.2028    0.7064    0.0001
C    -0.0103    -1.3948    0
C    0.0104    1.3948    -0.0001
C    1.2028    -0.7063    0
C    1.2131    0.6884    0
H    -2.1577    -1.2244    0
H    -2.1393    1.2564    0.0001
H    -0.0184    -2.4809    -0.0001
H    0.0184    2.4808    0
H    2.1394    -1.2563    0.0001
H    2.1577    1.2245    0
