66
# converted from Conformer3D_CID_54494119.json
C    0    0.7042    -0.0024
C    0    -0.704    -0.0028
C    -2.4517    0.7041    -0.0039
C    -2.4517    -0.704    -0.0034
C    2.4518    0.7043    0.0002
C    2.4518    -0.7039    -0.001
C    -4.9035    0.7042    -0.004
C    -4.9034    -0.704    -0.0023
C    4.9036    0.7043    0.003
C    4.9035    -0.7038    0.001
C    1.2258    1.3911    -0.0008
C    1.2258    -1.3909    -0.0024
C    -1.2259    1.391    -0.0034
C    -1.2258    -1.3909    -0.0033
C    -3.6776    1.391    -0.0047
C    -3.6775    -1.3908    -0.0026
C    3.6776    1.3912    0.0025
C    3.6776    -1.3908    -0.0008
C    -7.3553    0.7043    -0.0025
C    -7.3552    -0.7043    0
C    7.3554    0.7044    0.0041
C    7.3554    -0.7043    0.0014
C    -6.1293    1.3911    -0.0046
C    -6.1293    -1.3909    -0.0003
C    6.1295    1.3911    0.005
C    6.1294    -1.3909    0.0004
C    -8.5807    1.3923    -0.0029
C    -8.5805    -1.3924    0.0033
C    8.5808    1.3923    0.0051
C    8.5806    -1.3924    -0.0004
C    -9.8063    0.7057    0.0001
C    -9.8063    -0.7059    0.0037
C    9.8063    0.7057    0.0029
C    9.8061    -0.7059    -0.0001
C    -11.0318    1.3926    -0.0003
C    -11.0315    -1.3931    0.0076
C    11.0317    1.3926    0.0031
C    11.0313    -1.3932    -0.0028
C    -12.24    0.6953    0.0035
C    -12.2398    -0.6959    0.0079
C    12.2398    0.6952    0
C    12.2396    -0.696    -0.0029
H    1.2258    2.4813    -0.0001
H    1.2259    -2.481    -0.003
H    -1.226    2.4812    -0.0034
H    -1.2258    -2.481    -0.0031
H    -3.6776    2.4812    -0.0055
H    -3.6775    -2.481    -0.0016
H    3.6776    2.4813    0.0037
H    3.6777    -2.4809    -0.0021
H    -6.1292    2.4813    -0.0062
H    -6.1291    -2.4811    0.0014
H    6.1294    2.4813    0.0067
H    6.1291    -2.481    -0.0014
H    -8.5805    2.4824    -0.0053
H    -8.5802    -2.4825    0.0057
H    8.5807    2.4825    0.0072
H    8.5802    -2.4825    -0.0026
H    -11.0555    2.4805    -0.0033
H    -11.055    -2.4809    0.0107
H    11.0554    2.4804    0.0054
H    11.0547    -2.481    -0.0051
H    -13.1802    1.2388    0.0033
H    -13.18    -1.2397    0.011
H    13.1801    1.2387    0.0001
H    13.1797    -1.2399    -0.0052
