54
# converted from Conformer3D_CID_5460708.json
C    -0.0001    0.7043    -0.0026
C    0    -0.7039    -0.0027
C    2.4518    0.7043    -0.0011
C    2.4517    -0.7039    -0.0021
C    -2.4518    0.7043    -0.0031
C    -2.4517    -0.7039    -0.0023
C    -1.2259    1.3912    -0.0032
C    -1.2259    -1.3907    -0.0025
C    1.226    1.3912    -0.0017
C    1.2258    -1.3907    -0.0028
C    4.9038    0.7045    0.0012
C    4.9036    -0.7043    -0.0005
C    -4.9037    0.7045    -0.0021
C    -4.9036    -0.7043    -0.0005
C    3.6778    1.3912    0.0006
C    3.6776    -1.3909    -0.002
C    -3.6777    1.3911    -0.0034
C    -3.6776    -1.3908    -0.0009
C    6.1293    1.3923    0.0032
C    6.1289    -1.3924    -0.0008
C    -6.1292    1.3923    -0.0018
C    -6.1289    -1.3923    0.002
C    7.3548    0.7057    0.0029
C    7.3545    -0.706    0.0007
C    -7.3547    0.7057    0.0003
C    -7.3546    -0.706    0.0026
C    8.5802    1.3926    0.0044
C    8.5798    -1.3932    -0.0001
C    -8.5802    1.3926    0.0004
C    -8.5798    -1.3931    0.0055
C    9.7883    0.6953    0.0032
C    9.7882    -0.696    0.0011
C    -9.7883    0.6952    0.0028
C    -9.7882    -0.696    0.0054
H    -1.2259    2.4814    -0.0034
H    -1.2259    -2.4809    -0.0021
H    1.226    2.4814    -0.0013
H    1.2257    -2.4809    -0.0031
H    3.6777    2.4814    0.0017
H    3.6773    -2.481    -0.0029
H    -3.6776    2.4813    -0.0042
H    -3.6773    -2.481    0.0001
H    6.1291    2.4824    0.0047
H    6.1285    -2.4825    -0.0023
H    -6.129    2.4825    -0.0032
H    -6.1285    -2.4824    0.0037
H    8.6039    2.4804    0.006
H    8.6033    -2.4811    -0.0019
H    -8.6039    2.4804    -0.0014
H    -8.6033    -2.481    0.0075
H    10.7285    1.2388    0.0041
H    10.7283    -1.2398    0.0004
H    -10.7285    1.2388    0.0028
H    -10.7284    -1.2398    0.0074
