36
# converted from Conformer3D_CID_8671.json
C    1.2259    0.7043    -0.0013
C    1.2259    -0.7043    -0.0015
C    -1.2259    0.7043    -0.0018
C    -1.2259    -0.7043    -0.0017
C    0    1.3911    -0.0017
C    0    -1.391    -0.0019
C    3.6769    0.7058    0.0005
C    3.677    -0.7059    -0.0002
C    -3.6769    0.7058    -0.0007
C    -3.6769    -0.7059    0
C    2.4513    1.3923    -0.0002
C    2.4513    -1.3924    -0.0013
C    -2.4513    1.3923    -0.0018
C    -2.4513    -1.3923    -0.0009
C    4.9023    1.3929    0.0017
C    4.9024    -1.3929    0.0005
C    -4.9023    1.3929    0.0003
C    -4.9024    -1.3928    0.0018
C    6.1106    0.6956    0.0025
C    6.1106    -0.6956    0.0019
C    -6.1106    0.6956    0.0024
C    -6.1107    -0.6956    0.0032
H    0    2.4813    -0.0015
H    0    -2.4812    -0.0018
H    2.451    2.4824    0.0002
H    2.4511    -2.4825    -0.0016
H    -2.4511    2.4823    -0.002
H    -2.4511    -2.4824    -0.0005
H    4.9258    2.4808    0.0021
H    4.926    -2.4807    0.0001
H    -4.9259    2.4807    -0.0001
H    -4.9259    -2.4807    0.0025
H    7.0507    1.2394    0.0036
H    7.0508    -1.2393    0.0025
H    -7.0508    1.2393    0.0033
H    -7.0509    -1.2392    0.0048
