30
# converted from Conformer3D_CID_7080.json
C    0    0.7045    -0.0002
C    0    -0.7046    -0.0001
C    -2.451    0.7058    0
C    -2.4511    -0.7058    0.0002
C    2.4511    0.7057    0.0001
C    2.4511    -0.7058    -0.0001
C    1.2254    1.3923    -0.0001
C    1.2254    -1.3924    -0.0003
C    -1.2254    1.3923    -0.0002
C    -1.2255    -1.3923    0.0002
C    -3.6764    1.3928    -0.0001
C    -3.6764    -1.3929    0.0002
C    3.6764    1.3929    0.0003
C    3.6765    -1.3929    -0.0001
C    -4.8846    0.6957    -0.0001
C    -4.8847    -0.6955    0.0001
C    4.8846    0.6957    0.0004
C    4.8847    -0.6956    -0.0001
H    1.2253    2.4825    -0.0001
H    1.2254    -2.4825    -0.0003
H    -1.2254    2.4824    -0.0003
H    -1.2255    -2.4824    0.0003
H    -3.6999    2.4807    -0.0002
H    -3.7001    -2.4808    0.0003
H    3.6999    2.4807    0.0004
H    3.7001    -2.4807    -0.0003
H    -5.8248    1.2393    -0.0002
H    -5.8249    -1.2392    0.0002
H    5.8248    1.2394    0.0005
H    5.8249    -1.2392    -0.0002
